2024_89_CemigReconfigurationCases/1_AlimsCemig/BHSN03/BHSN03CargaBT_Dez.dss
new load.3001421884M1 bus1=RML1055549622.1.2.3.0,Phases=3,kv=0.22,kW=0.54312,pf=0.92,Vminpu=0.92,Vmaxpu=1.5,model=8,zipv=[0.5,0,0.5,1,0,0,0],daily=RES2_5,status=variable
new load.3001421885M1 bus1=RML1055615534.1.2.3.0,Phases=3,kv=0.22,kW=0.70548,pf=0.92,Vminpu=0.92,Vmaxpu=1.5,model=8,zipv=[0.5,0,0.5,1,0,0,0],daily=RES2_5,status=variable
new load.3001421886M1 bus1=RML1055615534.1.2.3.0,Phases=3,kv=0.22,kW=2.23036,pf=0.92,Vminpu=0.92,Vmaxpu=1.5,model=8,zipv=[0.5,0,0.5,1,0,0,0],daily=RES3_6,status=variable
new load.3001421887M1 bus1=RML1055615534.1.2.3.0,Phases=3,kv=0.22,kW=0.6271,pf=0.92,Vminpu=0.92,Vmaxpu=1.5,model=8,zipv=[0.5,0,0.5,1,0,0,0],daily=RES2_5,status=variable
new load.3001421888M1 bus1=RML1055615534.1.2.3.0,Phases=3,kv=0.22,kW=1.39924,pf=0.92,Vminpu=0.92,Vmaxpu=1.5,model=8,zipv=[0.5,0,0.5,1,0,0,0],daily=RES3_6,status=variable
new load.3001421889M1 bus1=RML1055615534.1.2.3.0,Phases=3,kv=0.22,kW=0.49272,pf=0.92,Vminpu=0.92,Vmaxpu=1.5,model=8,zipv=[0.5,0,0.5,1,0,0,0],daily=RES2_5,status=variable
new load.3001421890M1 bus1=RML1055615534.1.2.3.0,Phases=3,kv=0.22,kW=1.03584,pf=0.92,Vminpu=0.92,Vmaxpu=1.5,model=8,zipv=[0.5,0,0.5,1,0,0,0],daily=RES2_5,status=variable
new load.3001421891M1 bus1=RML1055615534.1.2.3.0,Phases=3,kv=0.22,kW=0.54872,pf=0.92,Vminpu=0.92,Vmaxpu=1.5,model=8,zipv=[0.5,0,0.5,1,0,0,0],daily=RES2_5,status=variable
new load.3001421892M1 bus1=RML1055615534.1.2.3.0,Phases=3,kv=0.22,kW=0.31914,pf=0.92,Vminpu=0.92,Vmaxpu=1.5,model=8,zipv=[0.5,0,0.5,1,0,0,0],daily=RES2_5,status=variable
new load.3001421893M1 bus1=RML1055615534.1.2.3.0,Phases=3,kv=0.22,kW=2.51442,pf=0.92,Vminpu=0.92,Vmaxpu=1.5,model=8,zipv=[0.5,0,0.5,1,0,0,0],daily=RES3_6,status=variable
new load.3001421894M1 bus1=RML1055615534.1.2.3.0,Phases=3,kv=0.22,kW=0.71108,pf=0.92,Vminpu=0.92,Vmaxpu=1.5,model=8,zipv=[0.5,0,0.5,1,0,0,0],daily=RES2_5,status=variable
new load.3001421895M1 bus1=RML1055615534.1.2.3.0,Phases=3,kv=0.22,kW=2.33556,pf=0.92,Vminpu=0.92,Vmaxpu=1.5,model=8,zipv=[0.5,0,0.5,1,0,0,0],daily=RES3_6,status=variable
new load.3001421896M1 bus1=RML1055615534.1.2.3.0,Phases=3,kv=0.22,kW=0.93504,pf=0.92,Vminpu=0.92,Vmaxpu=1.5,model=8,zipv=[0.5,0,0.5,1,0,0,0],daily=RES2_5,status=variable
new load.3001421898M1 bus1=RML1055615534.1.2.3.0,Phases=3,kv=0.22,kW=2.20932,pf=0.92,Vminpu=0.92,Vmaxpu=1.5,model=8,zipv=[0.5,0,0.5,1,0,0,0],daily=RES3_6,status=variable
new load.3001421899M1 bus1=RML1055615534.1.2.3.0,Phases=3,kv=0.22,kW=0.30796,pf=0.92,Vminpu=0.92,Vmaxpu=1.5,model=8,zipv=[0.5,0,0.5,1,0,0,0],daily=RES2_5,status=variable
new load.3001421900M1 bus1=RML1055615534.1.2.3.0,Phases=3,kv=0.22,kW=0.33034,pf=0.92,Vminpu=0.92,Vmaxpu=1.5,model=8,zipv=[0.5,0,0.5,1,0,0,0],daily=RES2_5,status=variable
new load.3001421901M1 bus1=RML1055615534.1.2.3.0,Phases=3,kv=0.22,kW=0.51512,pf=0.92,Vminpu=0.92,Vmaxpu=1.5,model=8,zipv=[0.5,0,0.5,1,0,0,0],daily=RES2_5,status=variable
new load.3001421902M1 bus1=RML1055615534.1.2.3.0,Phases=3,kv=0.22,kW=2.1462,pf=0.92,Vminpu=0.92,Vmaxpu=1.5,model=8,zipv=[0.5,0,0.5,1,0,0,0],daily=RES3_6,status=variable
new load.3001421903M1 bus1=RML1055615534.1.2.3.0,Phases=3,kv=0.22,kW=1.4834,pf=0.92,Vminpu=0.92,Vmaxpu=1.5,model=8,zipv=[0.5,0,0.5,1,0,0,0],daily=RES3_6,status=variable
new load.3001421904M1 bus1=RML1055615534.1.2.3.0,Phases=3,kv=0.22,kW=1.65174,pf=0.92,Vminpu=0.92,Vmaxpu=1.5,model=8,zipv=[0.5,0,0.5,1,0,0,0],daily=RES3_6,status=variable
new load.3001421905M1 bus1=RML1055615534.1.2.3.0,Phases=3,kv=0.22,kW=0.43688,pf=0.92,Vminpu=0.92,Vmaxpu=1.5,model=8,zipv=[0.5,0,0.5,1,0,0,0],daily=RES1_3,status=variable
new load.3001421906M1 bus1=RML1055615555.1.2.3.0,Phases=3,kv=0.22,kW=1.30456,pf=0.92,Vminpu=0.92,Vmaxpu=1.5,model=8,zipv=[0.5,0,0.5,1,0,0,0],daily=RES3_6,status=variable
new load.3001421907M1 bus1=RML1055615555.1.2.3.0,Phases=3,kv=0.22,kW=1.61426,pf=0.92,Vminpu=0.92,Vmaxpu=1.5,model=8,zipv=[0.5,0,0.5,1,0,0,0],daily=RES4_8,status=variable
new load.3001421908M1 bus1=RML1055615555.1.2.3.0,Phases=3,kv=0.22,kW=0.87374,pf=0.92,Vminpu=0.92,Vmaxpu=1.5,model=8,zipv=[0.5,0,0.5,1,0,0,0],daily=RES1_3,status=variable
new load.3001421910M1 bus1=RML1055615555.1.2.3.0,Phases=3,kv=0.22,kW=0.18394,pf=0.92,Vminpu=0.92,Vmaxpu=1.5,model=8,zipv=[0.5,0,0.5,1,0,0,0],daily=RES1_3,status=variable
new load.3001421911M1 bus1=RML1055615555.1.2.3.0,Phases=3,kv=0.22,kW=0.74728,pf=0.92,Vminpu=0.92,Vmaxpu=1.5,model=8,zipv=[0.5,0,0.5,1,0,0,0],daily=RES1_3,status=variable
new load.3001421912M1 bus1=RML1055615555.1.2.3.0,Phases=3,kv=0.22,kW=0.45352,pf=0.92,Vminpu=0.92,Vmaxpu=1.5,model=8,zipv=[0.5,0,0.5,1,0,0,0],daily=RES2_5,status=variable
new load.3001421913M1 bus1=RML1055615555.1.2.3.0,Phases=3,kv=0.22,kW=0.45912,pf=0.92,Vminpu=0.92,Vmaxpu=1.5,model=8,zipv=[0.5,0,0.5,1,0,0,0],daily=RES2_5,status=variable
new load.3001421914M1 bus1=RML1055615555.1.2.3.0,Phases=3,kv=0.22,kW=1.73224,pf=0.92,Vminpu=0.92,Vmaxpu=1.5,model=8,zipv=[0.5,0,0.5,1,0,0,0],daily=RES4_8,status=variable
new load.3001421915M1 bus1=RML1055615555.1.2.3.0,Phases=3,kv=0.22,kW=0.82306,pf=0.92,Vminpu=0.92,Vmaxpu=1.5,model=8,zipv=[0.5,0,0.5,1,0,0,0],daily=RES2_5,status=variable
new load.3001421916M1 bus1=RML1055615555.1.2.3.0,Phases=3,kv=0.22,kW=1.1783,pf=0.92,Vminpu=0.92,Vmaxpu=1.5,model=8,zipv=[0.5,0,0.5,1,0,0,0],daily=RES3_6,status=variable
new load.3001421917M1 bus1=RML1055615555.1.2.3.0,Phases=3,kv=0.22,kW=0.6215,pf=0.92,Vminpu=0.92,Vmaxpu=1.5,model=8,zipv=[0.5,0,0.5,1,0,0,0],daily=RES2_5,status=variable
new load.3001421918M1 bus1=RML1055615555.1.2.3.0,Phases=3,kv=0.22,kW=0.43672,pf=0.92,Vminpu=0.92,Vmaxpu=1.5,model=8,zipv=[0.5,0,0.5,1,0,0,0],daily=RES2_5,status=variable
new load.3001421919M1 bus1=RML1055615618.1.2.3.0,Phases=3,kv=0.22,kW=0.86226,pf=0.92,Vminpu=0.92,Vmaxpu=1.5,model=8,zipv=[0.5,0,0.5,1,0,0,0],daily=RES2_5,status=variable
new load.3001421920M1 bus1=RML1055615618.1.2.3.0,Phases=3,kv=0.22,kW=0.89674,pf=0.92,Vminpu=0.92,Vmaxpu=1.5,model=8,zipv=[0.5,0,0.5,1,0,0,0],daily=RES1_3,status=variable
new load.3001421921M1 bus1=RML1055615618.1.2.3.0,Phases=3,kv=0.22,kW=0.39754,pf=0.92,Vminpu=0.92,Vmaxpu=1.5,model=8,zipv=[0.5,0,0.5,1,0,0,0],daily=RES2_5,status=variable
new load.3001421922M1 bus1=RML1055615618.1.2.3.0,Phases=3,kv=0.22,kW=2.43026,pf=0.92,Vminpu=0.92,Vmaxpu=1.5,model=8,zipv=[0.5,0,0.5,1,0,0,0],daily=RES3_6,status=variable
new load.3001421923M1 bus1=RML1055615618.1.2.3.0,Phases=3,kv=0.22,kW=0.75588,pf=0.92,Vminpu=0.92,Vmaxpu=1.5,model=8,zipv=[0.5,0,0.5,1,0,0,0],daily=RES2_5,status=variable
new load.3001421924M1 bus1=RML1055615618.1.2.3.0,Phases=3,kv=0.22,kW=0.5991,pf=0.92,Vminpu=0.92,Vmaxpu=1.5,model=8,zipv=[0.5,0,0.5,1,0,0,0],daily=RES2_5,status=variable
new load.3001421925M1 bus1=RML1055615618.1.2.3.0,Phases=3,kv=0.22,kW=0.7154,pf=0.92,Vminpu=0.92,Vmaxpu=1.5,model=8,zipv=[0.5,0,0.5,1,0,0,0],daily=RES3_6,status=variable
new load.3001421926M1 bus1=RML1055615618.1.2.3.0,Phases=3,kv=0.22,kW=0.54312,pf=0.92,Vminpu=0.92,Vmaxpu=1.5,model=8,zipv=[0.5,0,0.5,1,0,0,0],daily=RES2_5,status=variable
new load.3001421927M1 bus1=RML1055615618.1.2.3.0,Phases=3,kv=0.22,kW=0.75028,pf=0.92,Vminpu=0.92,Vmaxpu=1.5,model=8,zipv=[0.5,0,0.5,1,0,0,0],daily=RES2_5,status=variable
new load.3001421928M1 bus1=RML1055615618.1.2.3.0,Phases=3,kv=0.22,kW=0.5711,pf=0.92,Vminpu=0.92,Vmaxpu=1.5,model=8,zipv=[0.5,0,0.5,1,0,0,0],daily=RES2_5,status=variable
new load.3001421929M1 bus1=RML1055615618.1.2.3.0,Phases=3,kv=0.22,kW=0.64382,pf=0.92,Vminpu=0.92,Vmaxpu=1.5,model=8,zipv=[0.5,0,0.5,1,0,0,0],daily=RES1_3,status=variable
new load.3001421930M1 bus1=RML1055615618.1.2.3.0,Phases=3,kv=0.22,kW=0.1578,pf=0.92,Vminpu=0.92,Vmaxpu=1.5,model=8,zipv=[0.5,0,0.5,1,0,0,0],daily=RES3_6,status=variable
new load.3001421931M1 bus1=RML1055615618.1.2.3.0,Phases=3,kv=0.22,kW=0.82306,pf=0.92,Vminpu=0.92,Vmaxpu=1.5,model=8,zipv=[0.5,0,0.5,1,0,0,0],daily=RES2_5,status=variable
new load.3001421933M1 bus1=RML1055615639.1.2.3.0,Phases=3,kv=0.22,kW=0.49272,pf=0.92,Vminpu=0.92,Vmaxpu=1.5,model=8,zipv=[0.5,0,0.5,1,0,0,0],daily=RES2_5,status=variable
new load.3001421934M1 bus1=RML1055615639.1.2.3.0,Phases=3,kv=0.22,kW=0.36394,pf=0.92,Vminpu=0.92,Vmaxpu=1.5,model=8,zipv=[0.5,0,0.5,1,0,0,0],daily=RES2_5,status=variable
new load.3001421935M1 bus1=RML1055615639.1.2.3.0,Phases=3,kv=0.22,kW=0.5767,pf=0.92,Vminpu=0.92,Vmaxpu=1.5,model=8,zipv=[0.5,0,0.5,1,0,0,0],daily=RES2_5,status=variable
new load.3001421936M1 bus1=RML1055615639.1.2.3.0,Phases=3,kv=0.22,kW=2.52494,pf=0.92,Vminpu=0.92,Vmaxpu=1.5,model=8,zipv=[0.5,0,0.5,1,0,0,0],daily=RES3_6,status=variable
new load.3001421937M1 bus1=RML1055615639.1.2.3.0,Phases=3,kv=0.22,kW=2.29348,pf=0.92,Vminpu=0.92,Vmaxpu=1.5,model=8,zipv=[0.5,0,0.5,1,0,0,0],daily=RES3_6,status=variable
new load.3001421938M1 bus1=RML1055615639.1.2.3.0,Phases=3,kv=0.22,kW=0.6439,pf=0.92,Vminpu=0.92,Vmaxpu=1.5,model=8,zipv=[0.5,0,0.5,1,0,0,0],daily=RES2_5,status=variable
new load.3001421939M1 bus1=RML1055615639.1.2.3.0,Phases=3,kv=0.22,kW=0.52072,pf=0.92,Vminpu=0.92,Vmaxpu=1.5,model=8,zipv=[0.5,0,0.5,1,0,0,0],daily=RES2_5,status=variable
new load.3001421940M1 bus1=RML1055615639.1.2.3.0,Phases=3,kv=0.22,kW=0.78178,pf=0.92,Vminpu=0.92,Vmaxpu=1.5,model=8,zipv=[0.5,0,0.5,1,0,0,0],daily=RES1_3,status=variable
new load.3001421941M1 bus1=RML1055615639.1.2.3.0,Phases=3,kv=0.22,kW=0.44232,pf=0.92,Vminpu=0.92,Vmaxpu=1.5,model=8,zipv=[0.5,0,0.5,1,0,0,0],daily=RES2_5,status=variable
new load.3001421942M1 bus1=RML1055615639.1.2.3.0,Phases=3,kv=0.22,kW=0.6607,pf=0.92,Vminpu=0.92,Vmaxpu=1.5,model=8,zipv=[0.5,0,0.5,1,0,0,0],daily=RES2_5,status=variable
new load.3001421943M1 bus1=RML1055615639.1.2.3.0,Phases=3,kv=0.22,kW=1.31508,pf=0.92,Vminpu=0.92,Vmaxpu=1.5,model=8,zipv=[0.5,0,0.5,1,0,0,0],daily=RES3_6,status=variable
new load.3001421945M1 bus1=RML1055615639.1.2.3.0,Phases=3,kv=0.22,kW=2.00944,pf=0.92,Vminpu=0.92,Vmaxpu=1.5,model=8,zipv=[0.5,0,0.5,1,0,0,0],daily=RES3_6,status=variable
new load.3001421946M1 bus1=RML1055615632.1.2.3.0,Phases=3,kv=0.22,kW=0.83926,pf=0.92,Vminpu=0.92,Vmaxpu=1.5,model=8,zipv=[0.5,0,0.5,1,0,0,0],daily=RES1_3,status=variable
new load.3001421947M1 bus1=RML1055615632.1.2.3.0,Phases=3,kv=0.22,kW=2.17776,pf=0.92,Vminpu=0.92,Vmaxpu=1.5,model=8,zipv=[0.5,0,0.5,1,0,0,0],daily=RES3_6,status=variable
new load.3001421948M1 bus1=RML1055615632.1.2.3.0,Phases=3,kv=0.22,kW=0.44792,pf=0.92,Vminpu=0.92,Vmaxpu=1.5,model=8,zipv=[0.5,0,0.5,1,0,0,0],daily=RES2_5,status=variable
new load.3001421949M1 bus1=RML1055615632.1.2.3.0,Phases=3,kv=0.22,kW=0.99664,pf=0.92,Vminpu=0.92,Vmaxpu=1.5,model=8,zipv=[0.5,0,0.5,1,0,0,0],daily=RES2_5,status=variable
new load.3001421950M1 bus1=RML1055615632.1.2.3.0,Phases=3,kv=0.22,kW=1.01202,pf=0.92,Vminpu=0.92,Vmaxpu=1.5,model=8,zipv=[0.5,0,0.5,1,0,0,0],daily=RES4_8,status=variable
new load.3001421951M1 bus1=RML1055615653.1.2.3.0,Phases=3,kv=0.22,kW=2.0936,pf=0.92,Vminpu=0.92,Vmaxpu=1.5,model=8,zipv=[0.5,0,0.5,1,0,0,0],daily=RES3_6,status=variable
new load.3001421952M1 bus1=RML1055615653.1.2.3.0,Phases=3,kv=0.22,kW=1.92526,pf=0.92,Vminpu=0.92,Vmaxpu=1.5,model=8,zipv=[0.5,0,0.5,1,0,0,0],daily=RES3_6,status=variable
new load.3001421954M1 bus1=RML1055615653.1.2.3.0,Phases=3,kv=0.22,kW=1.74642,pf=0.92,Vminpu=0.92,Vmaxpu=1.5,model=8,zipv=[0.5,0,0.5,1,0,0,0],daily=RES3_6,status=variable
new load.3001421955M1 bus1=RML1055615653.1.2.3.0,Phases=3,kv=0.22,kW=1.31148,pf=0.92,Vminpu=0.92,Vmaxpu=1.5,model=8,zipv=[0.5,0,0.5,1,0,0,0],daily=RES5_7,status=variable
new load.3001421956M1 bus1=RML1055615653.1.2.3.0,Phases=3,kv=0.22,kW=0.03448,pf=0.92,Vminpu=0.92,Vmaxpu=1.5,model=8,zipv=[0.5,0,0.5,1,0,0,0],daily=RES1_3,status=variable
new load.3001421957M1 bus1=RML1055615590.1.2.3.0,Phases=3,kv=0.22,kW=0.49832,pf=0.92,Vminpu=0.92,Vmaxpu=1.5,model=8,zipv=[0.5,0,0.5,1,0,0,0],daily=RES2_5,status=variable
new load.3001421958M1 bus1=RML1055615604.1.2.3.0,Phases=3,kv=0.22,kW=0.7933,pf=0.92,Vminpu=0.92,Vmaxpu=1.5,model=8,zipv=[0.5,0,0.5,1,0,0,0],daily=RES5_7,status=variable
new load.3001421959M1 bus1=RML1055679661.1.2.3.0,Phases=3,kv=0.22,kW=2.43026,pf=0.92,Vminpu=0.92,Vmaxpu=1.5,model=8,zipv=[0.5,0,0.5,1,0,0,0],daily=RES3_6,status=variable
new load.3001421962M1 bus1=RML1055679689.1.2.3.0,Phases=3,kv=0.22,kW=1.32002,pf=0.92,Vminpu=0.92,Vmaxpu=1.5,model=8,zipv=[0.5,0,0.5,1,0,0,0],daily=COM1_8,status=variable
new load.3001421963M1 bus1=RML1055679682.1.2.3.0,Phases=3,kv=0.22,kW=1.03584,pf=0.92,Vminpu=0.92,Vmaxpu=1.5,model=8,zipv=[0.5,0,0.5,1,0,0,0],daily=RES2_5,status=variable
new load.3001421964M1 bus1=RML1055679682.1.2.3.0,Phases=3,kv=0.22,kW=1.82536,pf=0.92,Vminpu=0.92,Vmaxpu=1.5,model=8,zipv=[0.5,0,0.5,1,0,0,0],daily=RES4_8,status=variable
new load.3001421965M1 bus1=RML1055679682.1.2.3.0,Phases=3,kv=0.22,kW=2.4214,pf=0.92,Vminpu=0.92,Vmaxpu=1.5,model=8,zipv=[0.5,0,0.5,1,0,0,0],daily=RES4_8,status=variable
new load.3001421966M1 bus1=RML1055679682.1.2.3.0,Phases=3,kv=0.22,kW=1.5759,pf=0.92,Vminpu=0.92,Vmaxpu=1.5,model=8,zipv=[0.5,0,0.5,1,0,0,0],daily=RES5_7,status=variable
new load.3001421967M1 bus1=RML1055679682.1.2.3.0,Phases=3,kv=0.22,kW=2.89316,pf=0.92,Vminpu=0.92,Vmaxpu=1.5,model=8,zipv=[0.5,0,0.5,1,0,0,0],daily=RES3_6,status=variable
new load.3001421968M1 bus1=RML1055679731.1.2.3.0,Phases=3,kv=0.22,kW=1.81044,pf=0.92,Vminpu=0.92,Vmaxpu=1.5,model=8,zipv=[0.5,0,0.5,1,0,0,0],daily=IND2_5,status=variable
new load.3001421970M1 bus1=RML1055679738.1.2.3.0,Phases=3,kv=0.22,kW=1.77798,pf=0.92,Vminpu=0.92,Vmaxpu=1.5,model=8,zipv=[0.5,0,0.5,1,0,0,0],daily=RES3_6,status=variable
new load.3001421333M1 bus1=RML1055669420.1.2.3.0,Phases=3,kv=0.22,kW=2.83004,pf=0.92,Vminpu=0.92,Vmaxpu=1.5,model=8,zipv=[0.5,0,0.5,1,0,0,0],daily=RES3_6,status=variable
new load.3001421334M1 bus1=RML1055669420.1.2.3.0,Phases=3,kv=0.22,kW=2.15672,pf=0.92,Vminpu=0.92,Vmaxpu=1.5,model=8,zipv=[0.5,0,0.5,1,0,0,0],daily=RES3_6,status=variable
new load.3001421335M1 bus1=RML1055669420.1.2.3.0,Phases=3,kv=0.22,kW=2.78772,pf=0.92,Vminpu=0.92,Vmaxpu=1.5,model=8,zipv=[0.5,0,0.5,1,0,0,0],daily=RES4_8,status=variable
new load.3001421336M1 bus1=RML1055669420.1.2.3.0,Phases=3,kv=0.22,kW=1.23402,pf=0.92,Vminpu=0.92,Vmaxpu=1.5,model=8,zipv=[0.5,0,0.5,1,0,0,0],daily=RES5_7,status=variable
new load.3001421337M1 bus1=RML1055669420.1.2.3.0,Phases=3,kv=0.22,kW=0.08398,pf=0.92,Vminpu=0.92,Vmaxpu=1.5,model=8,zipv=[0.5,0,0.5,1,0,0,0],daily=RES2_5,status=variable
new load.3001421338M1 bus1=RML1055669420.1.2.3.0,Phases=3,kv=0.22,kW=3.66116,pf=0.92,Vminpu=0.92,Vmaxpu=1.5,model=8,zipv=[0.5,0,0.5,1,0,0,0],daily=RES3_6,status=variable
new load.3001421340M1 bus1=RML1055669392.1.2.3.0,Phases=3,kv=0.22,kW=1.66226,pf=0.92,Vminpu=0.92,Vmaxpu=1.5,model=8,zipv=[0.5,0,0.5,1,0,0,0],daily=RES3_6,status=variable
new load.3001421341M1 bus1=RML1055669392.1.2.3.0,Phases=3,kv=0.22,kW=1.00224,pf=0.92,Vminpu=0.92,Vmaxpu=1.5,model=8,zipv=[0.5,0,0.5,1,0,0,0],daily=RES2_5,status=variable
new load.3001421342M1 bus1=RML1055669392.1.2.3.0,Phases=3,kv=0.22,kW=0.73348,pf=0.92,Vminpu=0.92,Vmaxpu=1.5,model=8,zipv=[0.5,0,0.5,1,0,0,0],daily=RES2_5,status=variable
new load.3001421343M1 bus1=RML1055669392.1.2.3.0,Phases=3,kv=0.22,kW=2.28296,pf=0.92,Vminpu=0.92,Vmaxpu=1.5,model=8,zipv=[0.5,0,0.5,1,0,0,0],daily=RES3_6,status=variable
new load.3001421344M1 bus1=RML1055669392.1.2.3.0,Phases=3,kv=0.22,kW=2.40922,pf=0.92,Vminpu=0.92,Vmaxpu=1.5,model=8,zipv=[0.5,0,0.5,1,0,0,0],daily=RES3_6,status=variable
new load.3001421347M1 bus1=RML1055669371.1.2.3.0,Phases=3,kv=0.22,kW=1.0232,pf=0.92,Vminpu=0.92,Vmaxpu=1.5,model=8,zipv=[0.5,0,0.5,1,0,0,0],daily=RES1_3,status=variable
new load.3001421348M1 bus1=RML1055669371.1.2.3.0,Phases=3,kv=0.22,kW=0.41994,pf=0.92,Vminpu=0.92,Vmaxpu=1.5,model=8,zipv=[0.5,0,0.5,1,0,0,0],daily=RES2_5,status=variable
new load.3001421349M1 bus1=RML1055669371.1.2.3.0,Phases=3,kv=0.22,kW=0.89586,pf=0.92,Vminpu=0.92,Vmaxpu=1.5,model=8,zipv=[0.5,0,0.5,1,0,0,0],daily=RES2_5,status=variable
new load.3001421351M1 bus1=RML1055669371.1.2.3.0,Phases=3,kv=0.22,kW=0.70548,pf=0.92,Vminpu=0.92,Vmaxpu=1.5,model=8,zipv=[0.5,0,0.5,1,0,0,0],daily=RES2_5,status=variable
new load.3001421352M1 bus1=RML1055669371.1.2.3.0,Phases=3,kv=0.22,kW=0.21844,pf=0.92,Vminpu=0.92,Vmaxpu=1.5,model=8,zipv=[0.5,0,0.5,1,0,0,0],daily=RES1_3,status=variable
new load.3001421353M1 bus1=RML1055669371.1.2.3.0,Phases=3,kv=0.22,kW=0.6215,pf=0.92,Vminpu=0.92,Vmaxpu=1.5,model=8,zipv=[0.5,0,0.5,1,0,0,0],daily=RES2_5,status=variable
new load.3001421354M1 bus1=RML1055669371.1.2.3.0,Phases=3,kv=0.22,kW=2.01996,pf=0.92,Vminpu=0.92,Vmaxpu=1.5,model=8,zipv=[0.5,0,0.5,1,0,0,0],daily=RES3_6,status=variable
new load.3001421356M1 bus1=RML1055669364.1.2.3.0,Phases=3,kv=0.22,kW=2.44042,pf=0.92,Vminpu=0.92,Vmaxpu=1.5,model=8,zipv=[0.5,0,0.5,1,0,0,0],daily=COM2_5,status=variable
new load.3001421357M1 bus1=RML1055611376.1.2.3.0,Phases=3,kv=0.22,kW=2.47234,pf=0.92,Vminpu=0.92,Vmaxpu=1.5,model=8,zipv=[0.5,0,0.5,1,0,0,0],daily=RES3_6,status=variable
new load.3001421358M1 bus1=RML1055611376.1.2.3.0,Phases=3,kv=0.22,kW=1.06942,pf=0.92,Vminpu=0.92,Vmaxpu=1.5,model=8,zipv=[0.5,0,0.5,1,0,0,0],daily=RES2_5,status=variable
new load.3001421359M1 bus1=RML1055611376.1.2.3.0,Phases=3,kv=0.22,kW=2.12516,pf=0.92,Vminpu=0.92,Vmaxpu=1.5,model=8,zipv=[0.5,0,0.5,1,0,0,0],daily=RES3_6,status=variable
new load.3001421360M1 bus1=RML1055611376.1.2.3.0,Phases=3,kv=0.22,kW=0.6775,pf=0.92,Vminpu=0.92,Vmaxpu=1.5,model=8,zipv=[0.5,0,0.5,1,0,0,0],daily=RES2_5,status=variable
new load.3001421361M1 bus1=RML1055611376.1.2.3.0,Phases=3,kv=0.22,kW=2.40922,pf=0.92,Vminpu=0.92,Vmaxpu=1.5,model=8,zipv=[0.5,0,0.5,1,0,0,0],daily=RES3_6,status=variable
new load.3001421362M1 bus1=RML1055611376.1.2.3.0,Phases=3,kv=0.22,kW=2.18828,pf=0.92,Vminpu=0.92,Vmaxpu=1.5,model=8,zipv=[0.5,0,0.5,1,0,0,0],daily=RES3_6,status=variable
new load.3001421972M1 bus1=RML1055679675.1.2.3.0,Phases=3,kv=0.22,kW=0.77028,pf=0.92,Vminpu=0.92,Vmaxpu=1.5,model=8,zipv=[0.5,0,0.5,1,0,0,0],daily=RES1_3,status=variable
new load.3001421973M1 bus1=RML1055679675.1.2.3.0,Phases=3,kv=0.22,kW=0.89406,pf=0.92,Vminpu=0.92,Vmaxpu=1.5,model=8,zipv=[0.5,0,0.5,1,0,0,0],daily=RES4_8,status=variable
new load.3001421974M1 bus1=RML1055679675.1.2.3.0,Phases=3,kv=0.22,kW=2.5039,pf=0.92,Vminpu=0.92,Vmaxpu=1.5,model=8,zipv=[0.5,0,0.5,1,0,0,0],daily=RES3_6,status=variable
new load.3001421975M1 bus1=RML1055679675.1.2.3.0,Phases=3,kv=0.22,kW=1.91474,pf=0.92,Vminpu=0.92,Vmaxpu=1.5,model=8,zipv=[0.5,0,0.5,1,0,0,0],daily=RES3_6,status=variable
new load.3001421976M1 bus1=RML1055679675.1.2.3.0,Phases=3,kv=0.22,kW=2.47234,pf=0.92,Vminpu=0.92,Vmaxpu=1.5,model=8,zipv=[0.5,0,0.5,1,0,0,0],daily=RES3_6,status=variable
new load.3001421977M1 bus1=RML1055679675.1.2.3.0,Phases=3,kv=0.22,kW=1.94954,pf=0.92,Vminpu=0.92,Vmaxpu=1.5,model=8,zipv=[0.5,0,0.5,1,0,0,0],daily=RES4_8,status=variable
new load.3001421978M1 bus1=RML1055679675.1.2.3.0,Phases=3,kv=0.22,kW=0.88944,pf=0.92,Vminpu=0.92,Vmaxpu=1.5,model=8,zipv=[0.5,0,0.5,1,0,0,0],daily=RES5_7,status=variable
new load.3001421979M1 bus1=RML1055679654.1.2.3.0,Phases=3,kv=0.22,kW=1.55218,pf=0.92,Vminpu=0.92,Vmaxpu=1.5,model=8,zipv=[0.5,0,0.5,1,0,0,0],daily=RES4_8,status=variable
new load.3001421980M1 bus1=RML1055615597.1.2.3.0,Phases=3,kv=0.22,kW=0.84546,pf=0.92,Vminpu=0.92,Vmaxpu=1.5,model=8,zipv=[0.5,0,0.5,1,0,0,0],daily=RES2_5,status=variable
new load.3001421981M1 bus1=RML1055615576.1.2.3.0,Phases=3,kv=0.22,kW=2.05152,pf=0.92,Vminpu=0.92,Vmaxpu=1.5,model=8,zipv=[0.5,0,0.5,1,0,0,0],daily=RES3_6,status=variable
new load.3001421982M1 bus1=RML1055615576.1.2.3.0,Phases=3,kv=0.22,kW=1.88124,pf=0.92,Vminpu=0.92,Vmaxpu=1.5,model=8,zipv=[0.5,0,0.5,1,0,0,0],daily=RES4_8,status=variable
new load.3001421983M1 bus1=RML1055615576.1.2.3.0,Phases=3,kv=0.22,kW=2.1462,pf=0.92,Vminpu=0.92,Vmaxpu=1.5,model=8,zipv=[0.5,0,0.5,1,0,0,0],daily=RES3_6,status=variable
new load.3001421984M1 bus1=RML1055615576.1.2.3.0,Phases=3,kv=0.22,kW=0.49832,pf=0.92,Vminpu=0.92,Vmaxpu=1.5,model=8,zipv=[0.5,0,0.5,1,0,0,0],daily=RES2_5,status=variable
new load.3001421985M1 bus1=RML1055615576.1.2.3.0,Phases=3,kv=0.22,kW=0.60932,pf=0.92,Vminpu=0.92,Vmaxpu=1.5,model=8,zipv=[0.5,0,0.5,1,0,0,0],daily=RES1_3,status=variable
new load.3001421986M1 bus1=RML1055615576.1.2.3.0,Phases=3,kv=0.22,kW=0.87906,pf=0.92,Vminpu=0.92,Vmaxpu=1.5,model=8,zipv=[0.5,0,0.5,1,0,0,0],daily=RES2_5,status=variable
new load.3001421987M1 bus1=RML1055615576.1.2.3.0,Phases=3,kv=0.22,kW=3.072,pf=0.92,Vminpu=0.92,Vmaxpu=1.5,model=8,zipv=[0.5,0,0.5,1,0,0,0],daily=RES3_6,status=variable
new load.3001421988M1 bus1=RML1055656666.1.2.3.0,Phases=3,kv=0.22,kW=0.84858,pf=0.92,Vminpu=0.92,Vmaxpu=1.5,model=8,zipv=[0.5,0,0.5,1,0,0,0],daily=COM1_8,status=variable
new load.3001421990M1 bus1=RML1055669406.1.2.3.0,Phases=3,kv=0.22,kW=0.87076,pf=0.92,Vminpu=0.92,Vmaxpu=1.5,model=8,zipv=[0.5,0,0.5,1,0,0,0],daily=RES5_7,status=variable
new load.3001421994M1 bus1=RML1055669448.1.2.3.0,Phases=3,kv=0.22,kW=1.28588,pf=0.92,Vminpu=0.92,Vmaxpu=1.5,model=8,zipv=[0.5,0,0.5,1,0,0,0],daily=IND1_10,status=variable
new load.3001422126M1 bus1=RML1055656652.1.2.3.0,Phases=3,kv=0.22,kW=10.02572,pf=0.92,Vminpu=0.92,Vmaxpu=1.5,model=8,zipv=[0.5,0,0.5,1,0,0,0],daily=COM4_5,status=variable
new load.3001422128M1 bus1=RML1055656673.1.2.3.0,Phases=3,kv=0.22,kW=0.34738,pf=0.92,Vminpu=0.92,Vmaxpu=1.5,model=8,zipv=[0.5,0,0.5,1,0,0,0],daily=COM1_8,status=variable
new load.3001422132M1 bus1=RML1055656673.1.2.3.0,Phases=3,kv=0.22,kW=1.2866,pf=0.92,Vminpu=0.92,Vmaxpu=1.5,model=8,zipv=[0.5,0,0.5,1,0,0,0],daily=COM2_5,status=variable
new load.3001422138M1 bus1=RML1055656708.1.2.3.0,Phases=3,kv=0.22,kW=1.80674,pf=0.92,Vminpu=0.92,Vmaxpu=1.5,model=8,zipv=[0.5,0,0.5,1,0,0,0],daily=RES4_8,status=variable
new load.3001422139M1 bus1=RML1055656715.1.2.3.0,Phases=3,kv=0.22,kW=1.39092,pf=0.92,Vminpu=0.92,Vmaxpu=1.5,model=8,zipv=[0.5,0,0.5,1,0,0,0],daily=COM2_5,status=variable
new load.3001422140M1 bus1=RML1055656715.1.2.3.0,Phases=3,kv=0.22,kW=2.34898,pf=0.92,Vminpu=0.92,Vmaxpu=1.5,model=8,zipv=[0.5,0,0.5,1,0,0,0],daily=COM3_5,status=variable
new load.3001422141M1 bus1=RML1055656715.1.2.3.0,Phases=3,kv=0.22,kW=0.10918,pf=0.92,Vminpu=0.92,Vmaxpu=1.5,model=8,zipv=[0.5,0,0.5,1,0,0,0],daily=COM1_8,status=variable
new load.3001422156M1 bus1=RML1055637612.1.2.3.0,Phases=3,kv=0.22,kW=0.84858,pf=0.92,Vminpu=0.92,Vmaxpu=1.5,model=8,zipv=[0.5,0,0.5,1,0,0,0],daily=COM1_8,status=variable
new load.3001422157M1 bus1=RML1055637612.1.2.3.0,Phases=3,kv=0.22,kW=0.20842,pf=0.92,Vminpu=0.92,Vmaxpu=1.5,model=8,zipv=[0.5,0,0.5,1,0,0,0],daily=COM1_8,status=variable
new load.3001422158M1 bus1=RML1055637612.1.2.3.0,Phases=3,kv=0.22,kW=0.1985,pf=0.92,Vminpu=0.92,Vmaxpu=1.5,model=8,zipv=[0.5,0,0.5,1,0,0,0],daily=COM1_8,status=variable
new load.3001422159M1 bus1=RML1055637612.1.2.3.0,Phases=3,kv=0.22,kW=0.29278,pf=0.92,Vminpu=0.92,Vmaxpu=1.5,model=8,zipv=[0.5,0,0.5,1,0,0,0],daily=COM1_8,status=variable
new load.3001422161M1 bus1=RML1055637612.1.2.3.0,Phases=3,kv=0.22,kW=0.72074,pf=0.92,Vminpu=0.92,Vmaxpu=1.5,model=8,zipv=[0.5,0,0.5,1,0,0,0],daily=COM2_5,status=variable
new load.3001422162M1 bus1=RML1055637612.1.2.3.0,Phases=3,kv=0.22,kW=0.94288,pf=0.92,Vminpu=0.92,Vmaxpu=1.5,model=8,zipv=[0.5,0,0.5,1,0,0,0],daily=COM1_8,status=variable
new load.3001422163M1 bus1=RML1055637612.1.2.3.0,Phases=3,kv=0.22,kW=0.17864,pf=0.92,Vminpu=0.92,Vmaxpu=1.5,model=8,zipv=[0.5,0,0.5,1,0,0,0],daily=COM1_8,status=variable
new load.3001422166M1 bus1=RML1055637612.1.2.3.0,Phases=3,kv=0.22,kW=0.14888,pf=0.92,Vminpu=0.92,Vmaxpu=1.5,model=8,zipv=[0.5,0,0.5,1,0,0,0],daily=COM1_8,status=variable
new load.3001422169M1 bus1=RML1055637612.1.2.3.0,Phases=3,kv=0.22,kW=1.8262,pf=0.92,Vminpu=0.92,Vmaxpu=1.5,model=8,zipv=[0.5,0,0.5,1,0,0,0],daily=COM1_8,status=variable
new load.3001422170M1 bus1=RML1055637612.1.2.3.0,Phases=3,kv=0.22,kW=16.82282,pf=0.92,Vminpu=0.92,Vmaxpu=1.5,model=8,zipv=[0.5,0,0.5,1,0,0,0],daily=COM4_5,status=variable
new load.3001422171M1 bus1=RML1055679745.1.2.3.0,Phases=3,kv=0.22,kW=11.01734,pf=0.92,Vminpu=0.92,Vmaxpu=1.5,model=8,zipv=[0.5,0,0.5,1,0,0,0],daily=RES6_8,status=variable
new load.3001422172M1 bus1=RML1055679780.1.2.3.0,Phases=3,kv=0.22,kW=9.17608,pf=0.92,Vminpu=0.92,Vmaxpu=1.5,model=8,zipv=[0.5,0,0.5,1,0,0,0],daily=COM4_5,status=variable
new load.3001422173M1 bus1=RML1055679787.1.2.3.0,Phases=3,kv=0.22,kW=3.54088,pf=0.92,Vminpu=0.92,Vmaxpu=1.5,model=8,zipv=[0.5,0,0.5,1,0,0,0],daily=COM3_5,status=variable
new load.3001422175M1 bus1=RML1055679787.1.2.3.0,Phases=3,kv=0.22,kW=1.47386,pf=0.92,Vminpu=0.92,Vmaxpu=1.5,model=8,zipv=[0.5,0,0.5,1,0,0,0],daily=COM1_8,status=variable
new load.3001422176M1 bus1=RML1055679787.1.2.3.0,Phases=3,kv=0.22,kW=0.13398,pf=0.92,Vminpu=0.92,Vmaxpu=1.5,model=8,zipv=[0.5,0,0.5,1,0,0,0],daily=COM1_8,status=variable
new load.3001422177M1 bus1=RML1055679787.1.2.3.0,Phases=3,kv=0.22,kW=2.7731,pf=0.92,Vminpu=0.92,Vmaxpu=1.5,model=8,zipv=[0.5,0,0.5,1,0,0,0],daily=COM3_5,status=variable
new load.3001421363M1 bus1=RML1055611376.1.2.3.0,Phases=3,kv=0.22,kW=0.51512,pf=0.92,Vminpu=0.92,Vmaxpu=1.5,model=8,zipv=[0.5,0,0.5,1,0,0,0],daily=RES2_5,status=variable
new load.3001421364M1 bus1=RML1055611376.1.2.3.0,Phases=3,kv=0.22,kW=2.15442,pf=0.92,Vminpu=0.92,Vmaxpu=1.5,model=8,zipv=[0.5,0,0.5,1,0,0,0],daily=RES4_8,status=variable
new load.3001421365M1 bus1=RML1055611376.1.2.3.0,Phases=3,kv=0.22,kW=0.43688,pf=0.92,Vminpu=0.92,Vmaxpu=1.5,model=8,zipv=[0.5,0,0.5,1,0,0,0],daily=RES1_3,status=variable
new load.3001421366M1 bus1=RML1055611376.1.2.3.0,Phases=3,kv=0.22,kW=0.6775,pf=0.92,Vminpu=0.92,Vmaxpu=1.5,model=8,zipv=[0.5,0,0.5,1,0,0,0],daily=RES2_5,status=variable
new load.3001421367M1 bus1=RML1055611376.1.2.3.0,Phases=3,kv=0.22,kW=1.55218,pf=0.92,Vminpu=0.92,Vmaxpu=1.5,model=8,zipv=[0.5,0,0.5,1,0,0,0],daily=RES4_8,status=variable
new load.3001421369M1 bus1=RML1055611362.1.2.3.0,Phases=3,kv=0.22,kW=0.97722,pf=0.92,Vminpu=0.92,Vmaxpu=1.5,model=8,zipv=[0.5,0,0.5,1,0,0,0],daily=RES1_3,status=variable
new load.3001421370M1 bus1=RML1055611362.1.2.3.0,Phases=3,kv=0.22,kW=2.07256,pf=0.92,Vminpu=0.92,Vmaxpu=1.5,model=8,zipv=[0.5,0,0.5,1,0,0,0],daily=RES3_6,status=variable
new load.3001421371M1 bus1=RML1055611362.1.2.3.0,Phases=3,kv=0.22,kW=2.49338,pf=0.92,Vminpu=0.92,Vmaxpu=1.5,model=8,zipv=[0.5,0,0.5,1,0,0,0],daily=RES3_6,status=variable
new load.3001421372M1 bus1=RML1055611362.1.2.3.0,Phases=3,kv=0.22,kW=1.09414,pf=0.92,Vminpu=0.92,Vmaxpu=1.5,model=8,zipv=[0.5,0,0.5,1,0,0,0],daily=RES3_6,status=variable
new load.3001421373M1 bus1=RML1055611362.1.2.3.0,Phases=3,kv=0.22,kW=2.5642,pf=0.92,Vminpu=0.92,Vmaxpu=1.5,model=8,zipv=[0.5,0,0.5,1,0,0,0],daily=RES4_8,status=variable
new load.3001421374M1 bus1=RML1055611362.1.2.3.0,Phases=3,kv=0.22,kW=1.22332,pf=0.92,Vminpu=0.92,Vmaxpu=1.5,model=8,zipv=[0.5,0,0.5,1,0,0,0],daily=RES5_7,status=variable
new load.3001421375M1 bus1=RML1055611362.1.2.3.0,Phases=3,kv=0.22,kW=2.52494,pf=0.92,Vminpu=0.92,Vmaxpu=1.5,model=8,zipv=[0.5,0,0.5,1,0,0,0],daily=RES3_6,status=variable
new load.3001421376M1 bus1=RML1055611362.1.2.3.0,Phases=3,kv=0.22,kW=0.6271,pf=0.92,Vminpu=0.92,Vmaxpu=1.5,model=8,zipv=[0.5,0,0.5,1,0,0,0],daily=RES2_5,status=variable
new load.3001421377M1 bus1=RML1055611362.1.2.3.0,Phases=3,kv=0.22,kW=0.96958,pf=0.92,Vminpu=0.92,Vmaxpu=1.5,model=8,zipv=[0.5,0,0.5,1,0,0,0],daily=RES5_7,status=variable
new load.3001421379M1 bus1=RML1055611362.1.2.3.0,Phases=3,kv=0.22,kW=0.93504,pf=0.92,Vminpu=0.92,Vmaxpu=1.5,model=8,zipv=[0.5,0,0.5,1,0,0,0],daily=RES2_5,status=variable
new load.3001421380M1 bus1=RML1055611362.1.2.3.0,Phases=3,kv=0.22,kW=0.39194,pf=0.92,Vminpu=0.92,Vmaxpu=1.5,model=8,zipv=[0.5,0,0.5,1,0,0,0],daily=RES2_5,status=variable
new load.3001421381M1 bus1=RML1055611369.1.2.3.0,Phases=3,kv=0.22,kW=0.08048,pf=0.92,Vminpu=0.92,Vmaxpu=1.5,model=8,zipv=[0.5,0,0.5,1,0,0,0],daily=RES1_3,status=variable
new load.3001421382M1 bus1=RML1055611369.1.2.3.0,Phases=3,kv=0.22,kW=1.51492,pf=0.92,Vminpu=0.92,Vmaxpu=1.5,model=8,zipv=[0.5,0,0.5,1,0,0,0],daily=RES4_8,status=variable
new load.3001421383M1 bus1=RML1055611369.1.2.3.0,Phases=3,kv=0.22,kW=2.5565,pf=0.92,Vminpu=0.92,Vmaxpu=1.5,model=8,zipv=[0.5,0,0.5,1,0,0,0],daily=RES3_6,status=variable
new load.3001421384M1 bus1=RML1055611369.1.2.3.0,Phases=3,kv=0.22,kW=0.6775,pf=0.92,Vminpu=0.92,Vmaxpu=1.5,model=8,zipv=[0.5,0,0.5,1,0,0,0],daily=RES2_5,status=variable
new load.3001421385M1 bus1=RML1055611369.1.2.3.0,Phases=3,kv=0.22,kW=0.78388,pf=0.92,Vminpu=0.92,Vmaxpu=1.5,model=8,zipv=[0.5,0,0.5,1,0,0,0],daily=RES2_5,status=variable
new load.3001421387M1 bus1=RML1055611369.1.2.3.0,Phases=3,kv=0.22,kW=0.76148,pf=0.92,Vminpu=0.92,Vmaxpu=1.5,model=8,zipv=[0.5,0,0.5,1,0,0,0],daily=RES2_5,status=variable
new load.3001421388M1 bus1=RML1055611369.1.2.3.0,Phases=3,kv=0.22,kW=0.89026,pf=0.92,Vminpu=0.92,Vmaxpu=1.5,model=8,zipv=[0.5,0,0.5,1,0,0,0],daily=RES2_5,status=variable
new load.3001421389M1 bus1=RML1055611383.1.2.3.0,Phases=3,kv=0.22,kW=2.68274,pf=0.92,Vminpu=0.92,Vmaxpu=1.5,model=8,zipv=[0.5,0,0.5,1,0,0,0],daily=RES3_6,status=variable
new load.3001421390M1 bus1=RML1055611383.1.2.3.0,Phases=3,kv=0.22,kW=0.6495,pf=0.92,Vminpu=0.92,Vmaxpu=1.5,model=8,zipv=[0.5,0,0.5,1,0,0,0],daily=RES2_5,status=variable
new load.3001421391M1 bus1=RML1055611383.1.2.3.0,Phases=3,kv=0.22,kW=2.08308,pf=0.92,Vminpu=0.92,Vmaxpu=1.5,model=8,zipv=[0.5,0,0.5,1,0,0,0],daily=RES3_6,status=variable
new load.3001421392M1 bus1=RML1055611383.1.2.3.0,Phases=3,kv=0.22,kW=0.51512,pf=0.92,Vminpu=0.92,Vmaxpu=1.5,model=8,zipv=[0.5,0,0.5,1,0,0,0],daily=RES2_5,status=variable
new load.3001421393M1 bus1=RML1055611383.1.2.3.0,Phases=3,kv=0.22,kW=0.6719,pf=0.92,Vminpu=0.92,Vmaxpu=1.5,model=8,zipv=[0.5,0,0.5,1,0,0,0],daily=RES2_5,status=variable
new load.3001421394M1 bus1=RML1055611383.1.2.3.0,Phases=3,kv=0.22,kW=0.67042,pf=0.92,Vminpu=0.92,Vmaxpu=1.5,model=8,zipv=[0.5,0,0.5,1,0,0,0],daily=RES5_7,status=variable
new load.3001421395M1 bus1=RML1055611383.1.2.3.0,Phases=3,kv=0.22,kW=2.1988,pf=0.92,Vminpu=0.92,Vmaxpu=1.5,model=8,zipv=[0.5,0,0.5,1,0,0,0],daily=RES3_6,status=variable
new load.3001421396M1 bus1=RML1055611383.1.2.3.0,Phases=3,kv=0.22,kW=0.6551,pf=0.92,Vminpu=0.92,Vmaxpu=1.5,model=8,zipv=[0.5,0,0.5,1,0,0,0],daily=RES2_5,status=variable
new load.3001421397M1 bus1=RML1055611383.1.2.3.0,Phases=3,kv=0.22,kW=1.9463,pf=0.92,Vminpu=0.92,Vmaxpu=1.5,model=8,zipv=[0.5,0,0.5,1,0,0,0],daily=RES3_6,status=variable
new load.3001421398M1 bus1=RML1055611383.1.2.3.0,Phases=3,kv=0.22,kW=0.92386,pf=0.92,Vminpu=0.92,Vmaxpu=1.5,model=8,zipv=[0.5,0,0.5,1,0,0,0],daily=RES2_5,status=variable
new load.3001421399M1 bus1=RML1055611383.1.2.3.0,Phases=3,kv=0.22,kW=0.33594,pf=0.92,Vminpu=0.92,Vmaxpu=1.5,model=8,zipv=[0.5,0,0.5,1,0,0,0],daily=RES2_5,status=variable
new load.3001421400M1 bus1=RML1055611383.1.2.3.0,Phases=3,kv=0.22,kW=0.68868,pf=0.92,Vminpu=0.92,Vmaxpu=1.5,model=8,zipv=[0.5,0,0.5,1,0,0,0],daily=RES2_5,status=variable
new load.3001421401M1 bus1=RML1055611383.1.2.3.0,Phases=3,kv=0.22,kW=0.90146,pf=0.92,Vminpu=0.92,Vmaxpu=1.5,model=8,zipv=[0.5,0,0.5,1,0,0,0],daily=RES2_5,status=variable
new load.3001421402M1 bus1=RML1055611383.1.2.3.0,Phases=3,kv=0.22,kW=1.69382,pf=0.92,Vminpu=0.92,Vmaxpu=1.5,model=8,zipv=[0.5,0,0.5,1,0,0,0],daily=RES3_6,status=variable
new load.3001421403M1 bus1=RML1055611383.1.2.3.0,Phases=3,kv=0.22,kW=0.6719,pf=0.92,Vminpu=0.92,Vmaxpu=1.5,model=8,zipv=[0.5,0,0.5,1,0,0,0],daily=RES2_5,status=variable
new load.3001421404M1 bus1=RML1055611383.1.2.3.0,Phases=3,kv=0.22,kW=2.5039,pf=0.92,Vminpu=0.92,Vmaxpu=1.5,model=8,zipv=[0.5,0,0.5,1,0,0,0],daily=RES3_6,status=variable
new load.3001421405M1 bus1=RML1055611383.1.2.3.0,Phases=3,kv=0.22,kW=0.6383,pf=0.92,Vminpu=0.92,Vmaxpu=1.5,model=8,zipv=[0.5,0,0.5,1,0,0,0],daily=RES2_5,status=variable
new load.3001421406M1 bus1=RML1055611383.1.2.3.0,Phases=3,kv=0.22,kW=1.536,pf=0.92,Vminpu=0.92,Vmaxpu=1.5,model=8,zipv=[0.5,0,0.5,1,0,0,0],daily=RES3_6,status=variable
new load.3001421407M1 bus1=RML1055611383.1.2.3.0,Phases=3,kv=0.22,kW=1.9185,pf=0.92,Vminpu=0.92,Vmaxpu=1.5,model=8,zipv=[0.5,0,0.5,1,0,0,0],daily=RES4_8,status=variable
new load.3001421408M1 bus1=RML1055611383.1.2.3.0,Phases=3,kv=0.22,kW=1.8937,pf=0.92,Vminpu=0.92,Vmaxpu=1.5,model=8,zipv=[0.5,0,0.5,1,0,0,0],daily=RES3_6,status=variable
new load.3001421411M1 bus1=RML1055611404.1.2.3.0,Phases=3,kv=0.22,kW=1.02464,pf=0.92,Vminpu=0.92,Vmaxpu=1.5,model=8,zipv=[0.5,0,0.5,1,0,0,0],daily=RES2_5,status=variable
new load.3001421412M1 bus1=RML1055615611.1.2.3.0,Phases=3,kv=0.22,kW=2.19168,pf=0.92,Vminpu=0.92,Vmaxpu=1.5,model=8,zipv=[0.5,0,0.5,1,0,0,0],daily=RES4_8,status=variable
new load.3001421413M1 bus1=RML1055615625.1.2.3.0,Phases=3,kv=0.22,kW=0.24076,pf=0.92,Vminpu=0.92,Vmaxpu=1.5,model=8,zipv=[0.5,0,0.5,1,0,0,0],daily=RES2_5,status=variable
new load.3001421414M1 bus1=RML1055615625.1.2.3.0,Phases=3,kv=0.22,kW=1.86214,pf=0.92,Vminpu=0.92,Vmaxpu=1.5,model=8,zipv=[0.5,0,0.5,1,0,0,0],daily=RES3_6,status=variable
new load.3001421415M1 bus1=RML1055615625.1.2.3.0,Phases=3,kv=0.22,kW=2.07256,pf=0.92,Vminpu=0.92,Vmaxpu=1.5,model=8,zipv=[0.5,0,0.5,1,0,0,0],daily=RES3_6,status=variable
new load.3001421416M1 bus1=RML1055615625.1.2.3.0,Phases=3,kv=0.22,kW=0.6607,pf=0.92,Vminpu=0.92,Vmaxpu=1.5,model=8,zipv=[0.5,0,0.5,1,0,0,0],daily=RES2_5,status=variable
new load.3001421417M1 bus1=RML1055615625.1.2.3.0,Phases=3,kv=0.22,kW=1.52734,pf=0.92,Vminpu=0.92,Vmaxpu=1.5,model=8,zipv=[0.5,0,0.5,1,0,0,0],daily=RES4_8,status=variable
new load.3001421418M1 bus1=RML1055615625.1.2.3.0,Phases=3,kv=0.22,kW=1.66226,pf=0.92,Vminpu=0.92,Vmaxpu=1.5,model=8,zipv=[0.5,0,0.5,1,0,0,0],daily=RES3_6,status=variable
new load.3001421420M1 bus1=RML1055615625.1.2.3.0,Phases=3,kv=0.22,kW=0.39754,pf=0.92,Vminpu=0.92,Vmaxpu=1.5,model=8,zipv=[0.5,0,0.5,1,0,0,0],daily=RES2_5,status=variable
new load.3001422178M1 bus1=RML1055679787.1.2.3.0,Phases=3,kv=0.22,kW=1.54264,pf=0.92,Vminpu=0.92,Vmaxpu=1.5,model=8,zipv=[0.5,0,0.5,1,0,0,0],daily=COM2_5,status=variable
new load.3001422179M1 bus1=RML1055679787.1.2.3.0,Phases=3,kv=0.22,kW=1.94412,pf=0.92,Vminpu=0.92,Vmaxpu=1.5,model=8,zipv=[0.5,0,0.5,1,0,0,0],daily=COM2_5,status=variable
...
